<?xml version="1.0" encoding="UTF-8"?>

<net version="1.6" junctionCornerDetail="5" limitTurnSpeed="5.50" xmlns:xsi="http://www.w3.org/2001/XMLSchema-instance" xsi:noNamespaceSchemaLocation="http://sumo.dlr.de/xsd/net_file.xsd">

    <location netOffset="0.00,0.00" convBoundary="-450.00,-500.00,550.00,500.00" origBoundary="-10000000000.00,-10000000000.00,10000000000.00,10000000000.00" projParameter="!"/>

    <edge id=":1_0" function="internal">
        <lane id=":1_0_0" index="0" speed="27.89" length="0.85" shape="551.55,-0.41 551.61,-0.17 551.63,0.00 551.61,0.17 551.55,0.41"/>
    </edge>
    <edge id=":10_0" function="internal">
        <lane id=":10_0_0" index="0" speed="27.89" length="0.85" shape="49.59,-501.55 49.83,-501.61 50.00,-501.63 50.17,-501.61 50.41,-501.55"/>
    </edge>
    <edge id=":11_0" function="internal">
        <lane id=":11_0_0" index="0" speed="27.89" length="0.85" shape="300.41,-434.56 300.65,-434.49 300.81,-434.42 300.95,-434.31 301.13,-434.14"/>
    </edge>
    <edge id=":12_0" function="internal">
        <lane id=":12_0_0" index="0" speed="27.89" length="0.85" shape="484.14,-251.13 484.31,-250.95 484.42,-250.81 484.49,-250.65 484.56,-250.41"/>
    </edge>
    <edge id=":2_0" function="internal">
        <lane id=":2_0_0" index="0" speed="27.89" length="0.85" shape="484.56,250.41 484.49,250.65 484.42,250.81 484.31,250.95 484.14,251.13"/>
    </edge>
    <edge id=":3_0" function="internal">
        <lane id=":3_0_0" index="0" speed="27.89" length="0.85" shape="301.13,434.14 300.95,434.31 300.81,434.42 300.65,434.49 300.41,434.56"/>
    </edge>
    <edge id=":4_0" function="internal">
        <lane id=":4_0_0" index="0" speed="27.89" length="0.85" shape="50.41,501.55 50.17,501.61 50.00,501.63 49.83,501.61 49.59,501.55"/>
    </edge>
    <edge id=":5_0" function="internal">
        <lane id=":5_0_0" index="0" speed="27.89" length="0.85" shape="-200.41,434.56 -200.65,434.49 -200.81,434.42 -200.95,434.31 -201.13,434.14"/>
    </edge>
    <edge id=":6_0" function="internal">
        <lane id=":6_0_0" index="0" speed="27.89" length="0.85" shape="-384.14,251.13 -384.31,250.95 -384.42,250.81 -384.49,250.65 -384.56,250.41"/>
    </edge>
    <edge id=":7_0" function="internal">
        <lane id=":7_0_0" index="0" speed="27.89" length="0.85" shape="-451.55,0.41 -451.61,0.17 -451.63,-0.00 -451.61,-0.17 -451.55,-0.41"/>
    </edge>
    <edge id=":8_0" function="internal">
        <lane id=":8_0_0" index="0" speed="27.89" length="0.85" shape="-384.56,-250.41 -384.49,-250.65 -384.42,-250.81 -384.31,-250.95 -384.14,-251.13"/>
    </edge>
    <edge id=":9_0" function="internal">
        <lane id=":9_0_0" index="0" speed="27.89" length="0.85" shape="-201.13,-434.14 -200.95,-434.31 -200.81,-434.42 -200.65,-434.49 -200.41,-434.56"/>
    </edge>

    <edge id="10to11" from="10" to="11" priority="-1">
        <lane id="10to11_0" index="0" speed="27.89" length="258.82" shape="50.41,-501.55 300.41,-434.56"/>
    </edge>
    <edge id="11to12" from="11" to="12" priority="-1">
        <lane id="11to12_0" index="0" speed="27.89" length="258.82" shape="301.13,-434.14 484.14,-251.13"/>
    </edge>
    <edge id="12to1" from="12" to="1" priority="-1">
        <lane id="12to1_0" index="0" speed="27.89" length="258.82" shape="484.56,-250.41 551.55,-0.41"/>
    </edge>
    <edge id="1to2" from="1" to="2" priority="-1">
        <lane id="1to2_0" index="0" speed="27.89" length="258.82" shape="551.55,0.41 484.56,250.41"/>
    </edge>
    <edge id="2to3" from="2" to="3" priority="-1">
        <lane id="2to3_0" index="0" speed="27.89" length="258.82" shape="484.14,251.13 301.13,434.14"/>
    </edge>
    <edge id="3to4" from="3" to="4" priority="-1">
        <lane id="3to4_0" index="0" speed="27.89" length="258.82" shape="300.41,434.56 50.41,501.55"/>
    </edge>
    <edge id="4to5" from="4" to="5" priority="-1">
        <lane id="4to5_0" index="0" speed="27.89" length="258.82" shape="49.59,501.55 -200.41,434.56"/>
    </edge>
    <edge id="5to6" from="5" to="6" priority="-1">
        <lane id="5to6_0" index="0" speed="27.89" length="258.82" shape="-201.13,434.14 -384.14,251.13"/>
    </edge>
    <edge id="6to7" from="6" to="7" priority="-1">
        <lane id="6to7_0" index="0" speed="27.89" length="258.82" shape="-384.56,250.41 -451.55,0.41"/>
    </edge>
    <edge id="7to8" from="7" to="8" priority="-1">
        <lane id="7to8_0" index="0" speed="27.89" length="258.82" shape="-451.55,-0.41 -384.56,-250.41"/>
    </edge>
    <edge id="8to9" from="8" to="9" priority="-1">
        <lane id="8to9_0" index="0" speed="27.89" length="258.82" shape="-384.14,-251.13 -201.13,-434.14"/>
    </edge>
    <edge id="9to10" from="9" to="10" priority="-1">
        <lane id="9to10_0" index="0" speed="27.89" length="258.82" shape="-200.41,-434.56 49.59,-501.55"/>
    </edge>

    <junction id="1" type="priority" x="550.00" y="0.00" incLanes="12to1_0" intLanes=":1_0_0" shape="553.09,-0.83 550.00,0.00 553.09,0.83 553.23,0.22 553.25,-0.00 553.23,-0.22 553.18,-0.48">
        <request index="0" response="0" foes="0" cont="0"/>
    </junction>
    <junction id="10" type="priority" x="50.00" y="-500.00" incLanes="9to10_0" intLanes=":10_0_0" shape="50.00,-500.00 50.83,-503.09 50.22,-503.23 50.00,-503.25 49.78,-503.23 49.52,-503.18 49.17,-503.09">
        <request index="0" response="0" foes="0" cont="0"/>
    </junction>
    <junction id="11" type="priority" x="300.00" y="-433.01" incLanes="10to11_0" intLanes=":11_0_0" shape="300.00,-433.01 302.26,-435.27 301.81,-435.70 301.63,-435.83 301.43,-435.92 301.17,-436.01 300.83,-436.10">
        <request index="0" response="0" foes="0" cont="0"/>
    </junction>
    <junction id="12" type="priority" x="483.01" y="-250.00" incLanes="11to12_0" intLanes=":12_0_0" shape="483.01,-250.00 486.10,-250.83 485.92,-251.43 485.83,-251.63 485.70,-251.81 485.52,-252.01 485.27,-252.26">
        <request index="0" response="0" foes="0" cont="0"/>
    </junction>
    <junction id="2" type="priority" x="483.01" y="250.00" incLanes="1to2_0" intLanes=":2_0_0" shape="486.10,250.83 483.01,250.00 485.27,252.26 485.70,251.81 485.83,251.63 485.92,251.43 486.01,251.17">
        <request index="0" response="0" foes="0" cont="0"/>
    </junction>
    <junction id="3" type="priority" x="300.00" y="433.01" incLanes="2to3_0" intLanes=":3_0_0" shape="302.26,435.27 300.00,433.01 300.83,436.10 301.43,435.92 301.63,435.83 301.81,435.70 302.01,435.52">
        <request index="0" response="0" foes="0" cont="0"/>
    </junction>
    <junction id="4" type="priority" x="50.00" y="500.00" incLanes="3to4_0" intLanes=":4_0_0" shape="50.83,503.09 50.00,500.00 49.17,503.09 49.78,503.23 50.00,503.25 50.22,503.23 50.48,503.18">
        <request index="0" response="0" foes="0" cont="0"/>
    </junction>
    <junction id="5" type="priority" x="-200.00" y="433.01" incLanes="4to5_0" intLanes=":5_0_0" shape="-200.83,436.10 -200.00,433.01 -202.26,435.27 -201.81,435.70 -201.63,435.83 -201.43,435.92 -201.17,436.01">
        <request index="0" response="0" foes="0" cont="0"/>
    </junction>
    <junction id="6" type="priority" x="-383.01" y="250.00" incLanes="5to6_0" intLanes=":6_0_0" shape="-385.27,252.26 -383.01,250.00 -386.10,250.83 -385.92,251.43 -385.83,251.63 -385.70,251.81 -385.52,252.01">
        <request index="0" response="0" foes="0" cont="0"/>
    </junction>
    <junction id="7" type="priority" x="-450.00" y="0.00" incLanes="6to7_0" intLanes=":7_0_0" shape="-453.09,0.83 -450.00,0.00 -453.09,-0.83 -453.23,-0.22 -453.25,-0.00 -453.23,0.22 -453.18,0.48">
        <request index="0" response="0" foes="0" cont="0"/>
    </junction>
    <junction id="8" type="priority" x="-383.01" y="-250.00" incLanes="7to8_0" intLanes=":8_0_0" shape="-383.01,-250.00 -385.27,-252.26 -385.70,-251.81 -385.83,-251.63 -385.92,-251.43 -386.01,-251.17 -386.10,-250.83">
        <request index="0" response="0" foes="0" cont="0"/>
    </junction>
    <junction id="9" type="priority" x="-200.00" y="-433.01" incLanes="8to9_0" intLanes=":9_0_0" shape="-200.00,-433.01 -200.83,-436.10 -201.43,-435.92 -201.63,-435.83 -201.81,-435.70 -202.01,-435.52 -202.26,-435.27">
        <request index="0" response="0" foes="0" cont="0"/>
    </junction>

    <connection from="10to11" to="11to12" fromLane="0" toLane="0" via=":11_0_0" dir="s" state="M"/>
    <connection from="11to12" to="12to1" fromLane="0" toLane="0" via=":12_0_0" dir="s" state="M"/>
    <connection from="12to1" to="1to2" fromLane="0" toLane="0" via=":1_0_0" dir="s" state="M"/>
    <connection from="1to2" to="2to3" fromLane="0" toLane="0" via=":2_0_0" dir="s" state="M"/>
    <connection from="2to3" to="3to4" fromLane="0" toLane="0" via=":3_0_0" dir="s" state="M"/>
    <connection from="3to4" to="4to5" fromLane="0" toLane="0" via=":4_0_0" dir="s" state="M"/>
    <connection from="4to5" to="5to6" fromLane="0" toLane="0" via=":5_0_0" dir="s" state="M"/>
    <connection from="5to6" to="6to7" fromLane="0" toLane="0" via=":6_0_0" dir="s" state="M"/>
    <connection from="6to7" to="7to8" fromLane="0" toLane="0" via=":7_0_0" dir="s" state="M"/>
    <connection from="7to8" to="8to9" fromLane="0" toLane="0" via=":8_0_0" dir="s" state="M"/>
    <connection from="8to9" to="9to10" fromLane="0" toLane="0" via=":9_0_0" dir="s" state="M"/>
    <connection from="9to10" to="10to11" fromLane="0" toLane="0" via=":10_0_0" dir="s" state="M"/>

    <connection from=":1_0" to="1to2" fromLane="0" toLane="0" dir="s" state="M"/>
    <connection from=":10_0" to="10to11" fromLane="0" toLane="0" dir="s" state="M"/>
    <connection from=":11_0" to="11to12" fromLane="0" toLane="0" dir="s" state="M"/>
    <connection from=":12_0" to="12to1" fromLane="0" toLane="0" dir="s" state="M"/>
    <connection from=":2_0" to="2to3" fromLane="0" toLane="0" dir="s" state="M"/>
    <connection from=":3_0" to="3to4" fromLane="0" toLane="0" dir="s" state="M"/>
    <connection from=":4_0" to="4to5" fromLane="0" toLane="0" dir="s" state="M"/>
    <connection from=":5_0" to="5to6" fromLane="0" toLane="0" dir="s" state="M"/>
    <connection from=":6_0" to="6to7" fromLane="0" toLane="0" dir="s" state="M"/>
    <connection from=":7_0" to="7to8" fromLane="0" toLane="0" dir="s" state="M"/>
    <connection from=":8_0" to="8to9" fromLane="0" toLane="0" dir="s" state="M"/>
    <connection from=":9_0" to="9to10" fromLane="0" toLane="0" dir="s" state="M"/>

</net>
